/*--------------------------------*- C++ -*----------------------------------*\
  =========                 |
  \\      /  F ield         | OpenFOAM: The Open Source CFD Toolbox
   \\    /   O peration     | Website:  https://openfoam.org
    \\  /    A nd           | Version:  6
     \\/     M anipulation  |
\*---------------------------------------------------------------------------*/
FoamFile
{
    version     2.0;
    format      ascii;
    class       dictionary;
    location    "system";
    object      fvSolution;
}
// * * * * * * * * * * * * * * * * * * * * * * * * * * * * * * * * * * * * * //

solvers
{
    p
    {
        solver          GAMG;
        tolerance       1e-5;
        relTol          0.05;
        smoother        symGaussSeidel;
        nCellsInCoarsestLevel 1000;
        minIter         1;
    }
    pFinal
    {
        $p;
        relTol          0;
    }
    pcorr
    {
        $p;
        tolerance       5e-4;
        relTol          0.1;
    }
    pcorrFinal
    {
        $p;
        tolerance       5e-4;
        relTol          0;
    }

    
    
    Phi
    {
        $p;
    }

    "(rho|U|k|epsilon)"
    {
        solver          smoothSolver;
        smoother        symGaussSeidel;
        tolerance       1e-06;
        relTol          0.01;
        minIter         1;
    }
    
    cellDisplacement
    {
        solver          smoothSolver;
        smoother        symGaussSeidel;
        tolerance       1e-06;
        relTol          0.1;
        minIter         1;
	maxIter		30;
    }
    
    h
    {
        solver          smoothSolver;
        smoother        symGaussSeidel;
        tolerance       1e-06;
        relTol          0.01;
        minIter         1;
    }

    "(rho|U|h|k|epsilon)Final"
    {
        $U;
        relTol          0;
    }

    cellDisplacementFinal
    {
	solver          smoothSolver;
        smoother        symGaussSeidel;
        tolerance       1e-06;
        relTol          0.0;
        minIter         1;
        maxIter         30;
    }
}

potentialFlow
{
    nNonOrthogonalCorrectors 10;
}

PIMPLE
{
    nOuterCorrectors    1;
    nCorrectors         1;
    nNonOrthogonalCorrectors 3;
    momentumPredictor   yes;
    transonic           no;
    consistent          no;
    simpleRho           no;

    pMax                250000;
    pMin                  7000;

    outerCorrectorResidualControl
    {
        "(U|k|epsilon|h)"
        {
        	relTol    0.01;
        	tolerance 1e-6;
        }
        p
        {
        	relTol    0.01;
        	tolerance 1e-6;
        }
    }

    turbOnFinalIterOnly no;
}

SIMPLE
{
    transonic           no;
    nNonOrthogonalCorrectors 3;
    consistent          no;
    simpleRho           no;

    pMax                150000;
    pMin                 7000;
    pRefCell		0;
    pRefValue            101325;

    residualControl
    {
        "(U|k|epsilon|p|h)"  1e-6;
    }
}


relaxationFactors
{
    fields
    {
        "p.*"           0.5;
        "rho.*"         1.0;
        //"U.*"           0.9;
        //"h.*"           0.9;
        //"(k|epsilon).*"   0.9;
    }
    equations
    {
        "U.*"           0.5;
        "h.*"           0.5;
        "(k|epsilon).*"   0.5;
    }
}


// ************************************************************************* //
