/*--------------------------------*- C++ -*----------------------------------*\
| =========                 |                                                 |
| \\      /  F ield         | OpenFOAM: The Open Source CFD Toolbox           |
|  \\    /   O peration     | Version:  5                                     |
|   \\  /    A nd           | Web:      www.OpenFOAM.org                      |
|    \\/     M anipulation  |                                                 |
\*---------------------------------------------------------------------------*/
FoamFile
{
    version     2.0;
    format      ascii;
    class       pointVectorField;
    object      pointDisplacement;
}
// * * * * * * * * * * * * * * * * * * * * * * * * * * * * * * * * * * * * * //

dimensions      [0 1 0 0 0 0 0];

internalField   uniform (0 0 0);

internalField   uniform (0 0 0); 

boundaryField
{
    back
    {
        type            empty;
    }
    front
    {
        type            empty;
    }
    prePlate
    {
        type            fixedValue;
	value		uniform (0 0 0);
    }
    inlet
    {
        type            fixedValue;
	value		uniform (0 0 0);
    }
    flatPlate
    {
        type            fixedValue;
	value		uniform (0 0 0);
    }
    rampFSI
    {
        type            rocstarFSI;
	value		uniform (0 0 0);
    }
    rampFixed
    {
        type            fixedValue;
	value		uniform (0 0 0);
    }
    outlet
    {
        type            fixedValue;
	value		uniform (0 0 0);
    }
    top
    {
        type            fixedValue;
	value		uniform (0 0 0);
    }
}


// ************************************************************************* //
