/*--------------------------------*- C++ -*----------------------------------*\
  =========                 |
  \\      /  F ield         | OpenFOAM: The Open Source CFD Toolbox
   \\    /   O peration     | Website:  https://openfoam.org
    \\  /    A nd           | Version:  7
     \\/     M anipulation  |
\*---------------------------------------------------------------------------*/
FoamFile
{
    version     2.0;
    format      ascii;
    class       dictionary;
    location    "system";
    object      fvSolution;
}
// * * * * * * * * * * * * * * * * * * * * * * * * * * * * * * * * * * * * * //

solvers
{
    "(rho|rhoU|rhoE)"
    {
        solver          diagonal;
    }

    U
    {
        solver          smoothSolver;
        smoother        GaussSeidel;
        nSweeps         2;
        tolerance       1e-09;
        relTol          0.01;
    }

    h
    {
        $U;
        tolerance       1e-10;
        relTol          0;
    }

    cellDisplacement
    {
        solver          smoothSolver;
        smoother        symGaussSeidel;
        tolerance       1e-06;
        relTol          1e-06;
        minIter         2; //100;
        maxIter         30; //100;
    }

    cellDisplacementFinal
    {
	$cellDisplacement;
        relTol          0;
    }

}

relaxationFactors
{
    fields
    {
        "p.*"           0.5;
        "rho.*"         1.0;
        //"U.*"           0.9;
        //"h.*"           0.9;
        //"(k|epsilon).*"   0.9;
    }
    equations
    {
        "U.*"           0.5;
        "h.*"           0.5;
        "(k|epsilon).*"   0.5;
    }
}


// ************************************************************************* //
