/*--------------------------------*- C++ -*----------------------------------*\
  =========                 |
  \\      /  F ield         | OpenFOAM: The Open Source CFD Toolbox
   \\    /   O peration     | Website:  https://openfoam.org
    \\  /    A nd           | Version:  6
     \\/     M anipulation  |
\*---------------------------------------------------------------------------*/
FoamFile
{
    version     2.0;
    format      ascii;
    class       dictionary;
    location    "constant";
    object      dynamicMeshDict;
}

// * * * * * * * * * * * * * * * * * * * * * * * * * * * * * * * * * * * * * //

dynamicFvMesh dynamicMultiMotionSolverFvMesh;

rotation1
{
    solidBodyMotionFunction  rotatingMotion;
    rotatingMotionCoeffs
    {
        origin      (0 0 0);
        axis        (0 0 1);
        omega       10; // rad/s
    }
}

dynamicMultiMotionSolverFvMeshCoeffs
{
    blades
    {
        cellZone Rotating;

        // Solve displacement on top of solid-body rotation
        solver solidBodyDisplacementLaplacian;

        solidBodyDisplacementLaplacianCoeffs
        {
            solidBodyMotionFunction  multiMotion;
            multiMotionCoeffs
            {
                motion_1
                {
                    $rotation1;
                }
            }
            diffusivity inverseDistance (fsi);
        }
    }
}

// ************************************************************************* //
